/*--------------------------------*- C++ -*----------------------------------*\
|                                                                             |
|                Generated by the CfdOF workbench for FreeCAD                 |
|                      https://github.com/jaheyns/CfdOF                       |
|                                                                             |
\*---------------------------------------------------------------------------*/
FoamFile
{
    version     2.0;
    format      ascii;
    class       dictionary;
    object      createPatchDict;
}
// * * * * * * * * * * * * * * * * * * * * * * * * * * * * * * * * * * * * * //

pointSync false;

// Patches to create.
patches
(
    {
        name wall;
        patchInfo
        {
            type wall;
        }
        constructFrom patches;
        patches ( "patch_3_.*" );
    }
    {
        name defaultFaces;
        patchInfo
        {
            type patch;
        }
        constructFrom patches;
        patches ( "patch_0_0" );
    }

    {
        name constraint_master;
        patchInfo
        {
            type cyclicAMI;
            neighbourPatch constraint_slave;

            transform translational;
            separationVector ( 50.0 0.0 0.0 );
        }

        constructFrom patches;
        patches ( "patch_1_.*" );
    }
    {
        name constraint_slave;
        patchInfo
        {
            type cyclicAMI;
            neighbourPatch constraint_master;

            transform translational;
            separationVector ( 50.0 0.0 0.0 );
        }

        constructFrom patches;
        patches ( "patch_2_.*" );
    }
);


// ************************************************************************* //
