/*--------------------------------*- C++ -*----------------------------------*\
| =========                 |                                                 |
| \\      /  F ield         | OpenFOAM: The Open Source CFD Toolbox           |
|  \\    /   O peration     | Version:  2512                                  |
|   \\  /    A nd           | Website:  www.openfoam.com                      |
|    \\/     M anipulation  |                                                 |
\*---------------------------------------------------------------------------*/
FoamFile
{
    version     2.0;
    format      ascii;
    arch        "LSB;label=32;scalar=64";
    class       polyBoundaryMesh;
    location    "constant/polyMesh";
    object      boundary;
}
// * * * * * * * * * * * * * * * * * * * * * * * * * * * * * * * * * * * * * //

6
(
    wall
    {
        type            wall;
        inGroups        1(wall);
        nFaces          786;
        startFace       7250;
    }
    defaultFaces
    {
        type            patch;
        nFaces          0;
        startFace       8036;
    }
    constraint_master
    {
        type            cyclicAMI;
        inGroups        1(cyclicAMI);
        nFaces          0;
        startFace       8036;
        matchTolerance  0.0001;
        transform       translational;
        neighbourPatch  constraint_slave;
        separationVector (50 0 0);
        AMIMethod       faceAreaWeightAMI;
        restartUncoveredSourceFace 1;
    }
    constraint_slave
    {
        type            cyclicAMI;
        inGroups        1(cyclicAMI);
        nFaces          100;
        startFace       8036;
        matchTolerance  0.0001;
        transform       translational;
        neighbourPatch  constraint_master;
        separationVector (50 0 0);
        AMIMethod       faceAreaWeightAMI;
        restartUncoveredSourceFace 1;
    }
    procBoundary0to1
    {
        type            processor;
        inGroups        1(processor);
        nFaces          208;
        startFace       8136;
        matchTolerance  0.0001;
        transform       unknown;
        myProcNo        0;
        neighbProcNo    1;
    }
    procBoundary0to2
    {
        type            processor;
        inGroups        1(processor);
        nFaces          130;
        startFace       8344;
        matchTolerance  0.0001;
        transform       unknown;
        myProcNo        0;
        neighbProcNo    2;
    }
)

// ************************************************************************* //
