/*--------------------------------*- C++ -*----------------------------------*\
| =========                 |                                                 |
| \\      /  F ield         | OpenFOAM: The Open Source CFD Toolbox           |
|  \\    /   O peration     | Version:  2512                                  |
|   \\  /    A nd           | Website:  www.openfoam.com                      |
|    \\/     M anipulation  |                                                 |
\*---------------------------------------------------------------------------*/
FoamFile
{
    version     2.0;
    format      ascii;
    arch        "LSB;label=32;scalar=64";
    class       polyBoundaryMesh;
    location    "constant/polyMesh";
    object      boundary;
}
// * * * * * * * * * * * * * * * * * * * * * * * * * * * * * * * * * * * * * //

5
(
    wall
    {
        type            wall;
        inGroups        1(wall);
        nFaces          846;
        startFace       7277;
    }
    defaultFaces
    {
        type            patch;
        nFaces          0;
        startFace       8123;
    }
    constraint_master
    {
        type            cyclicAMI;
        inGroups        1(cyclicAMI);
        nFaces          0;
        startFace       8123;
        matchTolerance  0.0001;
        transform       translational;
        neighbourPatch  constraint_slave;
        separationVector (50 0 0);
        AMIMethod       faceAreaWeightAMI;
        restartUncoveredSourceFace 1;
    }
    constraint_slave
    {
        type            cyclicAMI;
        inGroups        1(cyclicAMI);
        nFaces          160;
        startFace       8123;
        matchTolerance  0.0001;
        transform       translational;
        neighbourPatch  constraint_master;
        separationVector (50 0 0);
        AMIMethod       faceAreaWeightAMI;
        restartUncoveredSourceFace 1;
    }
    procBoundary1to0
    {
        type            processor;
        inGroups        1(processor);
        nFaces          208;
        startFace       8283;
        matchTolerance  0.0001;
        transform       unknown;
        myProcNo        1;
        neighbProcNo    0;
    }
)

// ************************************************************************* //
