/*--------------------------------*- C++ -*----------------------------------*\
|                                                                             |
|                Generated by the CfdOF workbench for FreeCAD                 |
|                      https://github.com/jaheyns/CfdOF                       |
|                                                                             |
\*---------------------------------------------------------------------------*/
FoamFile
{
    version     2.0;
    format      ascii;
    class       volScalarField;
    object      nut;
}
// * * * * * * * * * * * * * * * * * * * * * * * * * * * * * * * * * * * * * //

dimensions      [0 2 -1 0 0 0 0];

internalField   uniform 0;

boundaryField
{

    constraint_master
    {
        type        cyclicAMI;
    }

    constraint_slave
    {
        type        cyclicAMI;
    }



    wall
    {
        type        nutUSpaldingWallFunction;
        value       uniform 0;
    }

    defaultFaces
    {
        type        zeroGradient;
    }

}

// ************************************************************************* //
